Titre Lvar_analyse
Vds 1 0 3
Vgs 2 0
.PARAM Lvar=1u
.dc vgs 0 3 0.01 sweep Lvar 0.5u 1u 0.01u
*toxvar=0.025u
*sweep toxvar 0.005u 0.030u 0.005u 
.model mod1 nmos level=3
+ld=0.1u
+tox=0.025u
+nsub=7e16
+nss=1e10
+uo=500
+xj=0.5u
+theta=0.01
M1 1 2 0 0 mod1 L=Lvar w=10u
.option post
.end
